  Page 1                                    Mon Jun 22 16:07:29 2026

  ******************************************************************
  *                           E P A N E T                          *
  *                   Hydraulic and Water Quality                  *
  *                   Analysis for Pipe Networks                   *
  *                         Version 2.2                            *
  ******************************************************************
  
  Analysis begun Mon Jun 22 16:07:29 2026

  Analysis ended Mon Jun 22 16:07:29 2026
