  Page 1                                    Tue Jun 23 14:05:20 2026

  ******************************************************************
  *                           E P A N E T                          *
  *                   Hydraulic and Water Quality                  *
  *                   Analysis for Pipe Networks                   *
  *                         Version 2.2                            *
  ******************************************************************
  
  Analysis begun Tue Jun 23 14:05:20 2026

  Analysis ended Tue Jun 23 14:05:20 2026
